Circuit: * W:\Desktop\project (2)\project\masterclock_generator_test.asc

Direct Newton iteration for .op point succeeded.

Date: Fri Jan 20 19:10:23 2017
Total elapsed time: 0.328 seconds.

tnom = 27
temp = 27
method = modified trap
totiter = 22208
traniter = 22185
tranpoints = 6718
accept = 5021
rejected = 1697
matrix size = 7
fillins = 0
solver = Normal
Matrix Compiler1: 482 bytes object code size  0.1/0.1/[0.0]
Matrix Compiler2: 675 bytes object code size  0.1/0.1/[0.1]


